@<TRIPOS>MOLECULE
*****
 34 34 0 0 0
SMALL
GASTEIGER

@<TRIPOS>ATOM
      1 O          28.5740    4.9140   63.9000 O.2     1  ANC11      -0.2884
      2 C          28.7530    5.2660   65.0690 C.2     1  ANC11       0.2050
      3 C          30.0530    4.9790   65.8210 C.3     1  ANC11       0.1869
      4 C          29.7440    4.3420   67.1710 C.2     1  ANC11       0.1951
      5 C          28.8320    5.1770   68.0230 C.2     1  ANC11      -0.0115
      6 C          27.9100    5.9790   67.4080 C.2     1  ANC11      -0.0234
      7 C          27.0720    6.9750   68.2020 C.3     1  ANC11       0.0319
      8 C          25.7730    6.3720   68.6890 C.2     1  ANC11       0.1376
      9 C          24.6830    7.3670   68.9930 C.3     1  ANC11       0.0059
     10 C          23.4710    6.8100   69.7710 C.3     1  ANC11      -0.0492
     11 C          23.7690    6.3950   71.2170 C.3     1  ANC11      -0.0649
     12 O          25.6090    5.1610   68.8330 O.2     1  ANC11      -0.2971
     13 C          27.6770    5.9150   65.9270 C.2     1  ANC11       0.0584
     14 C          26.5600    6.3900   65.3110 C.2     1  ANC11       0.0917
     15 O          26.2550    6.3780   63.9810 O.2     1  ANC11      -0.5136
     16 O          30.1310    3.2200   67.4960 O.2     1  ANC11      -0.2891
     17 H          28.9590    5.2540   69.1130 H       1  ANC11       0.0656
     18 H          26.8340    7.8810   67.6020 H       1  ANC11       0.0390
     19 H          27.6270    7.3480   69.0900 H       1  ANC11       0.0390
     20 H          24.3180    7.7760   68.0250 H       1  ANC11       0.0342
     21 H          25.1160    8.2120   69.5720 H       1  ANC11       0.0342
     22 H          23.0480    5.9410   69.2190 H       1  ANC11       0.0267
     23 H          22.6860    7.6010   69.7890 H       1  ANC11       0.0267
     24 H          24.1600    7.2580   71.7960 H       1  ANC11       0.0230
     25 H          24.5270    5.5830   71.2410 H       1  ANC11       0.0230
     26 H          22.8460    6.0270   71.7130 H       1  ANC11       0.0230
     27 H          25.7610    6.8560   65.9070 H       1  ANC11       0.1028
     28 H          27.0100    5.9610   63.5500 H       1  ANC11       0.2913
     29 C          30.8895    6.2660   66.0378 C.3     1  UNL11      -0.0213
     30 H          31.1309    6.7322   65.0585 H       1  UNL11       0.0266
     31 H          31.8461    6.0213   66.5478 H       1  UNL11       0.0266
     32 H          30.3696    7.0167   66.6686 H       1  UNL11       0.0266
     33 O          30.8156    4.0928   65.0313 O.3     1  UNL11      -0.3735
     34 H          31.6654    3.8956   65.5075 H       1  UNL11       0.2113
@<TRIPOS>BOND
     1    28    15    1
     2     1     2    2
     3    15    14    1
     4     2     3    1
     5     2    13    1
     6    14    27    1
     7    14    13    2
     8     3     4    1
     9    13     6    1
    10     4    16    2
    11     4     5    1
    12     6     5    2
    13     6     7    1
    14    18     7    1
    15     5    17    1
    16    20     9    1
    17     7     8    1
    18     7    19    1
    19     8    12    2
    20     8     9    1
    21     9    21    1
    22     9    10    1
    23    22    10    1
    24    10    23    1
    25    10    11    1
    26    11    25    1
    27    11    26    1
    28    11    24    1
    29     3    29    1
    30    29    30    1
    31    29    31    1
    32    29    32    1
    33     3    33    1
    34    33    34    1
